contingency/peak_load/100pc/TNB_DUMA_VLN.Txt

SYMMETRICAL COMPONENT VOLTAGES BY BUS (for 3-phase buses)

Bus               Mag:   V1 (kV)    p.u.     V2 (kV)   %V2/V1    V0 (kV)    %V0/V1

ppu_duma_33kv        18.29       0.96  8.938E-009  4.887E-008 1.239E-009 6.776E-009
ppu_duma_11kv        4.743     0.7468  2.457E-009  5.181E-008 1.291E-010 2.722E-009
rpplngi2             4.869     0.7666  2.522E-009  5.181E-008 1.32E-010 2.711E-009
pdtjlnmasjid         4.966     0.7819  2.572E-009  5.18E-008 1.342E-010 2.702E-009
bella                5.032     0.7923  2.607E-009  5.18E-008 1.356E-010 2.696E-009
pstpdgn              5.065     0.7975  2.624E-009  5.18E-008 1.364E-010 2.692E-009
pamdra               4.757     0.7491  2.465E-009  5.181E-008 1.295E-010 2.722E-009
duma4                4.806     0.7567  2.49E-009  5.181E-008 1.464E-010 3.045E-009
plsdra               4.912     0.7735  2.545E-009  5.181E-008 1.778E-010 3.619E-009
ssu_uptwres_ir1      4.928     0.7759  2.553E-009  5.181E-008 1.782E-010 3.617E-009
atria_1              4.928      0.776  2.553E-009  5.181E-008 1.332E-010 2.703E-009
hawker               4.959     0.7808  2.569E-009  5.181E-008 1.351E-010 2.724E-009
prmte                4.839      0.762  2.507E-009  5.181E-008 1.626E-010 3.36E-009
prmta                4.857     0.7647  2.516E-009  5.18E-008 1.631E-010 3.358E-009
pmontb               4.873     0.7672  2.524E-009  5.18E-008 1.676E-010 3.44E-009
duma7                4.796     0.7551  2.485E-009  5.181E-008 1.26E-010 2.627E-009
haus                 4.913     0.7736  2.545E-009  5.181E-008 4.711E-010 9.589E-009
duma6                5.248     0.8264  2.718E-009  5.18E-008 2.169E-009 4.132E-008
duma13               5.566     0.8765  2.883E-009  5.179E-008 4.022E-009 7.225E-008
ssu_duma5_im2        5.606     0.8827  2.903E-009  5.179E-008 4.044E-009 7.214E-008
plngi_b              4.816     0.7584  2.495E-009  5.181E-008 1.307E-010 2.713E-009
plngi_d              4.855     0.7645  2.516E-009  5.181E-008 1.315E-010 2.708E-009
pdtlitrak            5.101     0.8031  2.642E-009  5.18E-008 1.396E-010 2.737E-009
duma12               5.253     0.8272  2.721E-009  5.18E-008 1.441E-010 2.742E-009
tmngh4               5.405      0.851   2.8E-009  5.18E-008 1.918E-010 3.548E-009
ssu_tmegah3_ir1      5.466     0.8606  2.831E-009  5.18E-008 2.116E-010 3.871E-009
tmngh2               5.491     0.8646  2.844E-009  5.18E-008 2.201E-010 4.008E-009
sprk9                5.021     0.7907  2.601E-009  5.18E-008 1.358E-010 2.705E-009
bomba                5.038     0.7934  2.61E-009  5.18E-008 1.398E-010 2.775E-009
sprk8                5.081     0.8001  2.632E-009  5.18E-008 1.503E-010 2.957E-009
ssu_uptwres_im2       4.79     0.7543  2.482E-009  5.181E-008 1.427E-010 2.979E-009
maybank              4.863     0.7657  2.519E-009  5.181E-008 1.444E-010 2.97E-009
duma8                4.877     0.7679  2.527E-009  5.181E-008 1.478E-010 3.031E-009
ssu_dsarcntr_ir1     4.781     0.7527  2.477E-009  5.181E-008 1.299E-010 2.717E-009
duma9                4.973     0.7831  2.576E-009  5.181E-008 1.343E-010 2.701E-009
duma1                5.071     0.7984  2.627E-009  5.18E-008 1.364E-010 2.691E-009
elite                5.106      0.804  2.645E-009  5.18E-008 1.372E-010 2.687E-009
duma10               4.915     0.7738  2.546E-009  5.181E-008 1.328E-010 2.702E-009
balaipolis           4.916     0.7741  2.547E-009  5.181E-008 1.328E-010 2.702E-009
ppu_duma_vcb1            0          0          0          0         0         0
